/*---------------------------------------------------------------------------*\
| =========                 |                                                 |
| \\      /  F ield         | OpenFOAM: The Open Source CFD Toolbox           |
|  \\    /   O peration     | Version:  v2012                                 |
|   \\  /    A nd           | Website:  www.openfoam.com                      |
|    \\/     M anipulation  |                                                 |
\*---------------------------------------------------------------------------*/
Build  : _7bdb509494-20201222 OPENFOAM=2012
Arch   : "LSB;label=32;scalar=64"
Exec   : surfaceFeatureExtract
Date   : Dec 05 2025
Time   : 22:07:17
Host   : plprm-HPEliteDesk
PID    : 30359
I/O    : uncollated
Case   : /home/plprm/FLOWDESK_OF/cases/testJRM2025/sim
nProcs : 1
trapFpe: Floating point exception trapping enabled (FOAM_SIGFPE).
fileModificationChecking : Monitoring run-time modified files using timeStampMaster (fileModificationSkew 5, maxFileModificationPolls 20)
allowSystemOperations : Allowing user-supplied system call operations

// * * * * * * * * * * * * * * * * * * * * * * * * * * * * * * * * * * * * * //
Create time


Note: Feature line extraction only valid on closed manifold surfaces

Reading surfaceFeatureExtractDict

Surfaces     : geometry.stl
Output       : geometry
Load options : offset
Write options: writeObj=yes writeVTK=off

Statistics:
Triangles    : 44 in 11 region(s)
Vertices     : 24
Bounding Box : (-4 -1.25 0) (3.8 4.25 2.2)

Constructing feature set from included angle 150
Selecting edges based purely on geometric tests: no

Initial Feature set:
    points : 24
    edges  : 31
    of which
        region edges   : 31
        external edges : 0
        internal edges : 0

Final Feature set:
    points : 24
    of which
        convex             : 10
        concave            : 0
        mixed              : 14
        non-feature        : 0
    edges  : 31
    of which
        external edges     : 19
        internal edges     : 1
        flat edges         : 11
        open edges         : 0
        multiply connected : 0

Writing extendedFeatureEdgeMesh to "/home/plprm/FLOWDESK_OF/cases/testJRM2025/sim/constant/extendedFeatureEdgeMesh/geometry.extendedFeatureEdgeMesh"

Writing extendedEdgeMesh components to "/home/plprm/FLOWDESK_OF/cases/testJRM2025/sim/constant/extendedFeatureEdgeMesh/geometry"
Writing 10 convex feature points to "/home/plprm/FLOWDESK_OF/cases/testJRM2025/sim/constant/extendedFeatureEdgeMesh/geometry_convexFeaturePts.obj"
Writing 0 concave feature points to "/home/plprm/FLOWDESK_OF/cases/testJRM2025/sim/constant/extendedFeatureEdgeMesh/geometry_concaveFeaturePts.obj"
Writing 14 mixed feature points to "/home/plprm/FLOWDESK_OF/cases/testJRM2025/sim/constant/extendedFeatureEdgeMesh/geometry_mixedFeaturePts.obj"
Writing 14 mixed feature point structure to "/home/plprm/FLOWDESK_OF/cases/testJRM2025/sim/constant/extendedFeatureEdgeMesh/geometry_mixedFeaturePtsStructure.obj"
Writing 19 external edges to "/home/plprm/FLOWDESK_OF/cases/testJRM2025/sim/constant/extendedFeatureEdgeMesh/geometry_externalEdges.obj"
Writing 1 internal edges to "/home/plprm/FLOWDESK_OF/cases/testJRM2025/sim/constant/extendedFeatureEdgeMesh/geometry_internalEdges.obj"
Writing 11 flat edges to "/home/plprm/FLOWDESK_OF/cases/testJRM2025/sim/constant/extendedFeatureEdgeMesh/geometry_flatEdges.obj"
Writing 0 open edges to "/home/plprm/FLOWDESK_OF/cases/testJRM2025/sim/constant/extendedFeatureEdgeMesh/geometry_openEdges.obj"
Writing 0 multiple edges to "/home/plprm/FLOWDESK_OF/cases/testJRM2025/sim/constant/extendedFeatureEdgeMesh/geometry_multipleEdges.obj"
Writing 31 region edges to "/home/plprm/FLOWDESK_OF/cases/testJRM2025/sim/constant/extendedFeatureEdgeMesh/geometry_regionEdges.obj"
Writing 31 edge directions to "/home/plprm/FLOWDESK_OF/cases/testJRM2025/sim/constant/extendedFeatureEdgeMesh/geometry_edgeDirections.obj"

Writing featureEdgeMesh to "/home/plprm/FLOWDESK_OF/cases/testJRM2025/sim/constant/triSurface/geometry.eMesh"
ExecutionTime = 0.01 s  ClockTime = 0 s

End

